Circuit: * C:\Users\Kyle\Documents\GitHub\LIFSrProj_SpSu15\DSP\Analog_LPF\PMTLowPassFilter.asc

Direct Newton iteration for .op point succeeded.

Date: Tue Aug 11 12:27:29 2015
Total elapsed time: 0.163 seconds.

tnom = 27
temp = 27
method = trap
totiter = 18
traniter = 0
tranpoints = 0
accept = 0
rejected = 0
matrix size = 19
fillins = 5
solver = Normal
Matrix Compiler1:      82 opcodes
Matrix Compiler2: 1.90 KB object code size

